! B3LYP D3BJ DEF2-TZVPP PMODEL Hirshfeld NBO
#cid: [10422029]
            
%pal nprocs 24
end

%scf ignoreconv true
end

%maxcore 3000

* xyz 0 1 

6   3.2946197613146984   0.8659299372361591   0.4814499651239225 
6   2.864919792407192   -0.4635499664103486   -0.126319990864242 
6   3.212029767259331   -1.6475598806144016   0.796489942313486 
1   2.9204597884053896   -1.3892798993319873   1.8537998656677763 
6   2.433809823677349   -2.9224397882853825   0.3723899730366325 
8   2.9764597843414973   -3.8948597177889184   -0.1022499925681927 
7   0.998119927702663   -2.8299297949477875   0.4308299687906436 
6   0.3466499748613112   -2.1316098455668415   1.5657298865829932 
8   0.38089997239068896   -4.103739702699923   0.3606599738526163 
6   0.1975399856800991   -4.498659674049508   -1.030689925332261 
7   4.665179661997779   -1.932619859982377   0.8467099386731468 
6   5.42609960687953   -2.0698298500542864   -0.3365899756094847 
8   5.222449621634166   -1.5637098867268053   -1.4206398970731415 
8   6.534119526592914   -2.8080597965595553   -0.006169999529557702 
6   7.619519447967532   -3.0401597797168356   -1.009029926898428 
6   8.202179405749407   -1.6914598774543979   -1.4037498983141203 
6   8.575559378699579   -3.882019718762781   -0.16774998782481243 
6   7.023519491139579   -3.805579724301791   -2.179859842067017 
1   3.1077797748230473   1.6922498773811265   -0.21540998438506806 
1   4.371939683264564   0.869609937004029   0.7011899491810721 
1   2.7658897996160405   1.0898699210162988   1.4129098976253063 
1   3.359119756637273   -0.5997099565515107   -1.1194699189052837 
1   1.7782798711355248   -0.4530599671762991   -0.34103997531598595 
1   0.5142299627608372   -1.045829924206703   1.4632898939955812 
1   0.6863699502749411   -2.4715698209434755   2.55625981480742 
1   -0.7451899460144729   -2.3101298326178195   1.5136398903572512 
1   -0.3722399730465257   -5.426779606792347   -0.9073599342496471 
1   1.173529914990511   -4.689189660276618   -1.4930098918131507 
1   -0.3690999732747908   -3.745859728621619   -1.5816398853960665 
1   4.938389642200235   -2.5671898139912823   1.6075098835204793 
1   8.504619383822918   -1.1084899196718017   -0.5263599618655538 
1   7.461759459356828   -1.0848399213903852   -1.9512198586497826 
1   9.076799342391253   -1.8042098692771475   -2.051749851342001 
1   8.909469354475236   -3.3362697583030925   0.7235499475687369 
1   9.460839314553676   -4.169879697893165   -0.74319994616689 
1   8.087829414032186   -4.798989652293934   0.18823998634639633 
1   6.29868954364468   -3.1857297692056123   -2.733619801966656 
1   6.47692953075646   -4.695739659791696   -1.8431498664760302 
1   7.791839435480347   -4.128439700912087   -2.8881497907268923 
*
$new_job

! B3LYP D3BJ DEF2-TZVPP PMODEL Hirshfeld NBO
#cid: [67259871]
            
%pal nprocs 24
end

%scf ignoreconv true
end

%maxcore 3000

* xyz 0 1 

6   1.3523399020011952   1.2651699083431522   -0.1587099884951285 
6   2.4366298234807733   0.22523998369439832   0.11903999138672702 
6   2.8481397936620825   -0.47689996542401675   -1.1301299181175375 
7   2.3562498293008125   -1.6977098769892627   -1.4547498945800021 
7   2.9407597869606716   -2.080249849303536   -2.636539808993976 
6   3.7940997251012867   -1.0839399214497447   -3.127689773372302 
6   3.771979726729543   -0.030349997786601343   -2.151979844106924 
6   4.59105966737319   1.1109499195307198   -2.3803598275201394 
6   5.368649611039057   1.164809915629138   -3.5308197442015636 
6   5.35407961206352   0.10492999240201742   -4.472589675938285 
6   4.582079668007798   -1.0258599256931569   -4.298649688542899 
7   4.566259669167622   2.147309844425516   -1.399039898656518 
6   5.283279617209377   3.358999756655771   -1.4566598944751956 
8   6.0529395614406   3.6287697371062797   -2.368599828380436 
6   5.037609635010606   4.269049690706833   -0.33497997574742255 
6   4.166719698133333   4.224399693916302   0.7728799440082647 
7   4.2921696890126215   5.340899613028056   1.5701498862279717 
6   5.25153961953562   6.1361695554325895   0.9892499283511832 
7   5.738979584190389   5.498079601666429   -0.20791998495315422 
6   6.711409513767351   6.068269560334262   -1.0152799264332928 
6   7.232399475997665   7.288149471950262   -0.6529499527014044 
6   6.770759509429593   7.94353942446957   0.5331899613727484 
6   5.7960995800420445   7.3857194648694575   1.3481899023278252 
8   7.229009476242419   9.153769336774952   0.9703699296916614 
6   8.266189401072548   9.841529286937048   0.1976099856648987 
6   8.46765938650403   11.142779192699464   0.9785899290860118 
8   7.8137494338976925   12.232259113762652   0.31545997715127905 
6   6.389839537050807   12.29583910915649   0.5433799606265843 
6   2.539429816012691   -3.338329758135475   -3.2966997611351783 
6   1.608329883455813   -3.0873097763424786   -4.460419676857374 
6   1.9830198563407495   -3.4712297485234007   -5.75488958305638 
6   1.108039919701481   -3.257639763954794   -6.824569505531309 
6   -0.1360399901596602   -2.6581198074225023   -6.60624952136992 
6   -0.5072599632311257   -2.2708698354506263   -5.3139296149761925 
6   0.36088997384803023   -2.4850798199677575   -4.2408496927255115 
1   1.1003799202913633   1.8329398671811792   0.7435199461352009 
1   0.42885996893115813   0.7823799433287764   -0.5090699631329145 
1   1.6469998806830868   1.974979856892193   -0.9410699318358076 
1   2.060979850690904   -0.5156699626446952   0.8622799375298117 
1   3.322679759273503   0.6962199495723687   0.5964399567777663 
1   6.005849564885085   2.032519852758481   -3.7289497298215823 
1   5.980309566696573   0.20473998515230687   -5.361329611585347 
1   4.560029669620855   -1.8317798672894374   -5.022549636088552 
1   3.96169971298891   1.9697898573085832   -0.5873699574394775 
1   3.4602997492866208   3.444579750439849   1.023299925840834 
1   7.016919491627798   5.506049601077269   -1.917859861040538 
1   7.994709420766573   7.748539438600778   -1.2776799074333898 
1   5.443629605575174   7.883359428851487   2.2527298367740483 
1   7.890479428318388   10.03250927313448   -0.8234199403362362 
1   9.166949335810417   9.207549332868062   0.179179987028615 
1   9.527189309754233   11.465089169346035   0.9658499300003606 
1   8.116689411938227   11.040519200110765   2.0235098533844846 
1   6.071869560096824   13.082479052172548   -0.15095998905919583 
1   6.192569551342316   12.585169088179336   1.5797698855299855 
1   5.910789571768592   11.340749178361786   0.3057799778320555 
1   2.034829852574375   -3.9973197103644282   -2.543639815703271 
1   3.4639897490220806   -3.874129719304331   -3.617949737883412 
1   2.950849786221103   -3.934869714906646   -5.934489570046711 
1   1.3989198986220983   -3.557089742299595   -7.830179432665885 
1   -0.8144899409675468   -2.490749819530293   -7.440829460885432 
1   -1.4744898931510522   -1.8003398695429762   -5.143239627366454 
1   0.07640999445238464   -2.1783398421778517   -3.2327797657849335 
*